data_bpu
_audit_creation_date              2023-03-07
_audit_creation_method            'script-jr'
_symmetry_space_group_name_H-M    'Pm-3n'
_symmetry_Int_Tables_number       223
_symmetry_cell_setting            cubic
loop_
_symmetry_equiv_pos_as_xyz
	x,y,z
	x,-y,-z
	-x,y,-z
	-x,-y,z
	z,x,y
	-z,-x,y
	z,-x,-y
	-z,x,-y
	y,z,x
	-y,z,-x
	-y,-z,x
	y,-z,-x
	1/2+x,1/2-z,1/2+y
	1/2+x,1/2+z,1/2-y
	1/2-x,1/2-z,1/2-y
	1/2-x,1/2+z,1/2+y
	1/2+z,1/2+y,1/2-x
	1/2-z,1/2+y,1/2+x
	1/2-z,1/2-y,1/2-x
	1/2+z,1/2-y,1/2+x
	1/2-y,1/2+x,1/2+z
	1/2+y,1/2-x,1/2+z
	1/2-y,1/2-x,1/2-z
	1/2+y,1/2+x,1/2-z
	
	-x,-y,-z
	-x,y,z
	x,-y,z
	x,y,-z
	-z,-x,-y
	z,x,-y
	-z,x,y
	z,-x,y
	-y,-z,-x
	y,-z,x
	y,z,-x
	-y,z,x
	1/2-x,1/2+z,1/2-y
	1/2-x,1/2-z,1/2+y
	1/2+x,1/2+z,1/2+y
	1/2+x,1/2-z,1/2-y
	1/2-z,1/2-y,1/2+x
	1/2+z,1/2-y,1/2-x
	1/2+z,1/2+y,1/2+x
	1/2-z,1/2+y,1/2-x
	1/2+y,1/2-x,1/2-z
	1/2-y,1/2+x,1/2-z
	1/2+y,1/2+x,1/2+z
	1/2-y,1/2-x,1/2+z
_cell_length_a                    5.6458
_cell_length_b                    5.6458
_cell_length_c                    5.6458
_cell_angle_alpha                 90.0
_cell_angle_beta                  90.0
_cell_angle_gamma                 90.0
loop_
_atom_site_label
_atom_site_type_symbol
_atom_site_fract_x
_atom_site_fract_y
_atom_site_fract_z
# _atom_site_U_iso_or_equiv
# _atom_site_adp_type
# _atom_site_occupancy
V1  N  0.0000  0.0886  0.3380
V2  N  0.1614  0.1614  0.3382