data_bpw
_audit_creation_date              2023-03-07
_audit_creation_method            'script-jr'
_symmetry_space_group_name_H-M    'Fd-3c'
_symmetry_Int_Tables_number       228
_symmetry_cell_setting            cubic
loop_
_symmetry_equiv_pos_as_xyz
	x,y,z
	x,-y,-z
	-x,y,-z
	-x,-y,z
	z,x,y
	-z,-x,y
	z,-x,-y
	-z,x,-y
	y,z,x
	-y,z,-x
	-y,-z,x
	y,-z,-x
	1/4+x,1/4-z,1/4+y
	1/4+x,1/4+z,1/4-y
	1/4-x,1/4-z,1/4-y
	1/4-x,1/4+z,1/4+y
	1/4+z,1/4+y,1/4-x
	1/4-z,1/4+y,1/4+x
	1/4-z,1/4-y,1/4-x
	1/4+z,1/4-y,1/4+x
	1/4-y,1/4+x,1/4+z
	1/4+y,1/4-x,1/4+z
	1/4-y,1/4-x,1/4-z
	1/4+y,1/4+x,1/4-z
	1/4-x,1/4-y,3/4-z
	1/4-x,1/4+y,3/4+z
	1/4+x,1/4-y,3/4+z
	1/4+x,1/4+y,3/4-z
	1/4-z,1/4-x,3/4-y
	1/4+z,1/4+x,3/4-y
	1/4-z,1/4+x,3/4+y
	1/4+z,1/4-x,3/4+y
	1/4-y,1/4-z,3/4-x
	1/4+y,1/4-z,3/4+x
	1/4+y,1/4+z,3/4-x
	1/4-y,1/4+z,3/4+x
	-x,z,1/2-y
	-x,-z,1/2+y
	x,z,1/2+y
	x,-z,1/2-y
	-z,-y,1/2+x
	z,-y,1/2-x
	z,y,1/2+x
	-z,y,1/2-x
	y,-x,1/2-z
	-y,x,1/2-z
	y,x,1/2+z
	-y,-x,1/2+z
_cell_length_a                    11.4083
_cell_length_b                    11.4083
_cell_length_c                    11.4083
_cell_angle_alpha                 90.0
_cell_angle_beta                  90.0
_cell_angle_gamma                 90.0
loop_
_atom_site_label
_atom_site_type_symbol
_atom_site_fract_x
_atom_site_fract_y
_atom_site_fract_z
# _atom_site_U_iso_or_equiv
# _atom_site_adp_type
# _atom_site_occupancy
V1  N  0.0812  0.2932  0.1231
V2  N  0.0296  0.2929  0.1939
V3  N  0.0438  0.2935  0.0438