data_kgk
_audit_creation_date              2023-03-07
_audit_creation_method            'script-jr'
_symmetry_space_group_name_H-M    'F432'
_symmetry_Int_Tables_number       209
_symmetry_cell_setting            cubic
loop_
_symmetry_equiv_pos_as_xyz
	x,y,z
	x,-y,-z
	-x,y,-z
	-x,-y,z
	z,x,y
	-z,-x,y
	z,-x,-y
	-z,x,-y
	y,z,x
	-y,z,-x
	-y,-z,x
	y,-z,-x
	x,-z,y
	x,z,-y
	-x,-z,-y
	-x,z,y
	z,y,-x
	-z,y,x
	-z,-y,-x
	z,-y,x
	-y,x,z
	y,-x,z
	-y,-x,-z
	y,x,-z
_cell_length_a                    11.8054
_cell_length_b                    11.8054
_cell_length_c                    11.8054
_cell_angle_alpha                 90.0
_cell_angle_beta                  90.0
_cell_angle_gamma                 90.0
loop_
_atom_site_label
_atom_site_type_symbol
_atom_site_fract_x
_atom_site_fract_y
_atom_site_fract_z
# _atom_site_U_iso_or_equiv
# _atom_site_adp_type
# _atom_site_occupancy
V1  N  0.0198  0.0863  0.3607
V2  N  0.0819  0.0819  0.4181
V3  N  0.0126  0.2860  0.0628
V4  N  0.0891  0.0891  0.0891
V5  N  0.0386  0.0579  0.2187
V6  N  0.0258  0.0973  0.1448