data_kgt
_audit_creation_date              2023-03-07
_audit_creation_method            'script-jr'
_symmetry_space_group_name_H-M    'I432'
_symmetry_Int_Tables_number       211
_symmetry_cell_setting            cubic
loop_
_symmetry_equiv_pos_as_xyz
	x,y,z
	x,-y,-z
	-x,y,-z
	-x,-y,z
	z,x,y
	-z,-x,y
	z,-x,-y
	-z,x,-y
	y,z,x
	-y,z,-x
	-y,-z,x
	y,-z,-x
	x,-z,y
	x,z,-y
	-x,-z,-y
	-x,z,y
	z,y,-x
	-z,y,x
	-z,-y,-x
	z,-y,x
	-y,x,z
	y,-x,z
	-y,-x,-z
	y,x,-z
_cell_length_a                    11.9509
_cell_length_b                    11.9509
_cell_length_c                    11.9509
_cell_angle_alpha                 90.0
_cell_angle_beta                  90.0
_cell_angle_gamma                 90.0
loop_
_atom_site_label
_atom_site_type_symbol
_atom_site_fract_x
_atom_site_fract_y
_atom_site_fract_z
# _atom_site_U_iso_or_equiv
# _atom_site_adp_type
# _atom_site_occupancy
V1  N  0.0210  0.1390  0.0878
V2  N  0.0108  0.0650  0.2130
V3  N  0.0825  0.0825  0.0825
V4  N  0.0867  0.0911  0.4084
V5  N  0.0223  0.1432  0.3965
V6  N  0.0297  0.3521  0.0949
V7  N  0.0987  0.4712  0.1415
V8  N  0.0298  0.2198  0.4292
V9  N  0.0279  0.4315  0.2804
V10  N  0.0405  0.2785  0.0566